Version 4
SHEET 1 880 680
WIRE 480 -208 32 -208
WIRE 320 -144 272 -144
WIRE -112 -128 -144 -128
WIRE 32 -128 32 -208
WIRE 32 -128 -32 -128
WIRE 320 -96 320 -144
WIRE 208 -32 -336 -32
WIRE 320 0 320 -16
WIRE -336 16 -336 -32
WIRE -144 48 -144 -128
WIRE -112 48 -144 48
WIRE -16 48 -32 48
WIRE 144 48 -16 48
WIRE 560 48 144 48
WIRE -16 64 -16 48
WIRE 144 128 144 48
WIRE 208 128 208 -32
WIRE 272 128 272 -144
WIRE -336 160 -336 96
WIRE -288 160 -336 160
WIRE -144 160 -144 48
WIRE -144 160 -208 160
WIRE -16 160 -16 128
WIRE -16 160 -144 160
WIRE 32 160 -16 160
WIRE 32 224 -176 224
WIRE 480 224 480 -208
WIRE 480 224 384 224
WIRE -176 288 -176 224
WIRE 32 288 -32 288
WIRE -32 304 -32 288
WIRE 272 384 272 320
WIRE -176 400 -176 352
WIRE -32 400 -32 384
FLAG 272 384 0
FLAG 320 0 0
FLAG -176 400 0
FLAG -32 400 0
FLAG 560 48 vout
SYMBOL FilterProducts\\LT1567 208 224 R0
SYMATTR InstName U1
SYMBOL voltage 320 -112 R0
WINDOW 123 0 0 Left 2
WINDOW 39 0 0 Left 2
SYMATTR InstName V1
SYMATTR Value 5
SYMBOL cap -192 288 R0
SYMATTR InstName C2
SYMATTR Value 100n
SYMBOL voltage -32 288 R0
WINDOW 123 0 0 Left 2
WINDOW 39 0 0 Left 2
SYMATTR InstName V2
SYMATTR Value .7
SYMBOL voltage -336 0 R0
WINDOW 123 24 124 Left 2
WINDOW 39 0 0 Left 2
SYMATTR InstName V3
SYMATTR Value ""
SYMATTR Value2 AC 1
SYMBOL res -304 144 M90
WINDOW 0 0 56 VBottom 2
WINDOW 3 32 56 VTop 2
SYMATTR InstName R1
SYMATTR Value 604
SYMBOL res -128 32 M90
WINDOW 0 0 56 VBottom 2
WINDOW 3 32 56 VTop 2
SYMATTR InstName R2
SYMATTR Value 604
SYMBOL res -128 -144 M90
WINDOW 0 0 56 VBottom 2
WINDOW 3 32 56 VTop 2
SYMATTR InstName R3
SYMATTR Value 604
SYMBOL cap -32 64 R0
SYMATTR InstName C1
SYMATTR Value 22p
TEXT -370 424 Left 2 !.ac oct 100 1k 5Meg
